Version 4
SHEET 1 880 680
WIRE -208 -384 -208 -416
WIRE -208 -288 -208 -304
WIRE -208 -288 -256 -288
WIRE -256 -272 -256 -288
WIRE -208 -256 -208 -288
WIRE -208 -160 -208 -176
WIRE 96 -96 -128 -96
WIRE 448 -96 96 -96
WIRE -128 -16 -128 -96
WIRE 96 -16 96 -96
WIRE -592 112 -656 112
WIRE -496 112 -592 112
WIRE -352 112 -416 112
WIRE -128 112 -128 64
WIRE -128 112 -352 112
WIRE -48 112 -128 112
WIRE 96 112 96 48
WIRE 96 112 32 112
WIRE 176 112 96 112
WIRE 448 144 448 -96
WIRE 448 144 320 144
WIRE 576 144 448 144
WIRE 624 144 576 144
WIRE -656 176 -656 112
WIRE -352 176 -352 112
WIRE -176 176 -256 176
WIRE 112 176 -96 176
WIRE 176 176 112 176
WIRE -256 208 -256 176
WIRE -48 256 -96 256
WIRE 112 256 112 176
WIRE 112 256 32 256
WIRE -656 304 -656 256
WIRE -352 304 -352 240
WIRE -256 304 -256 288
WIRE -96 304 -96 256
FLAG -96 304 0
FLAG -352 304 0
FLAG -256 304 0
FLAG -656 304 0
FLAG 576 144 VoutC
FLAG -592 112 VinC
FLAG -208 -416 V+
FLAG -208 -160 V-
FLAG -256 -272 0
FLAG 208 64 V+
FLAG 208 224 V-
SYMBOL OpAmps\\LT6011 208 144 R0
SYMATTR InstName U1
SYMBOL res -400 96 R90
WINDOW 0 0 56 VBottom 2
WINDOW 3 32 56 VTop 2
SYMATTR InstName R1
SYMATTR Value 10k
SYMBOL res -80 160 R90
WINDOW 0 0 56 VBottom 2
WINDOW 3 32 56 VTop 2
SYMATTR InstName R3
SYMATTR Value 80k
SYMBOL res 48 240 R90
WINDOW 0 0 56 VBottom 2
WINDOW 3 32 56 VTop 2
SYMATTR InstName R4
SYMATTR Value 10k
SYMBOL res -144 -32 R0
SYMATTR InstName R2
SYMATTR Value 80k
SYMBOL cap -368 176 R0
SYMATTR InstName C1
SYMATTR Value 27n
SYMBOL cap 80 -16 R0
SYMATTR InstName C2
SYMATTR Value 1.5n
SYMBOL res 48 96 R90
WINDOW 0 0 56 VBottom 2
WINDOW 3 32 56 VTop 2
SYMATTR InstName R5
SYMATTR Value 10k
SYMBOL voltage -256 192 R0
WINDOW 123 0 0 Left 0
WINDOW 39 0 0 Left 0
SYMATTR InstName V1
SYMATTR Value 2.5V
SYMBOL voltage -656 160 R0
WINDOW 3 24 152 Left 2
WINDOW 123 24 124 Left 2
WINDOW 39 0 0 Left 0
SYMATTR InstName V2
SYMATTR Value SINE(1.25 2.5 1k)
SYMATTR Value2 AC 1
SYMBOL voltage -208 -400 R0
WINDOW 123 0 0 Left 0
WINDOW 39 0 0 Left 0
SYMATTR InstName V3
SYMATTR Value 15V
SYMBOL voltage -208 -272 R0
WINDOW 123 0 0 Left 0
WINDOW 39 0 0 Left 0
SYMATTR InstName V4
SYMATTR Value 15V
TEXT -570 -28 Left 2 !;ac dec 1000 1 100k
TEXT -690 332 Left 2 !.noise V(VoutC) V2 dec 1000 1 100k
